data/scf/feeder3_hardpv_A.scf.json
{
  "attributes": {},
  "data": {
    "line": [
      {
        "c1": 0.0,
        "from_node": 1,
        "from_status": 1,
        "id": 4,
        "r1": 1.21,
        "tan1": 0.0,
        "to_node": 2,
        "to_status": 1,
        "x1": 9.68
      },
      {
        "c1": 0.0,
        "from_node": 2,
        "from_status": 1,
        "id": 5,
        "r1": 1.21,
        "tan1": 0.0,
        "to_node": 3,
        "to_status": 1,
        "x1": 9.68
      }
    ],
    "node": [
      {
        "id": 1,
        "u_rated": 110000.0
      },
      {
        "id": 2,
        "u_rated": 110000.0
      },
      {
        "id": 3,
        "u_rated": 110000.0
      }
    ],
    "source": [
      {
        "id": 6,
        "node": 1,
        "status": 1,
        "u_ref": 1.02,
        "u_ref_angle": 0.0
      }
    ],
    "sym_gen": [
      {
        "id": 8,
        "node": 2,
        "p_specified": 10000000.0,
        "q_specified": 0.0,
        "status": 1,
        "type": 0
      }
    ],
    "sym_load": [
      {
        "id": 7,
        "node": 3,
        "p_specified": 80000000.0,
        "q_specified": 25000000.0,
        "status": 1,
        "type": 0
      }
    ],
    "voltage_regulator": [
      {
        "id": 9,
        "q_max": 10000000.0,
        "q_min": -10000000.0,
        "regulated_object": 8,
        "status": 1,
        "u_ref": 1.0
      }
    ]
  },
  "is_batch": false,
  "sparlectra": {
    "components": {},
    "extra": {
      "1": {
        "bus_index": 1,
        "name": "B1",
        "node_type": "Slack"
      },
      "2": {
        "bus_index": 2,
        "name": "B2",
        "node_type": "PV"
      },
      "3": {
        "bus_index": 3,
        "name": "B3",
        "node_type": "PQ"
      },
      "4": {
        "name": "L_B1_B2"
      },
      "5": {
        "name": "L_B2_B3"
      },
      "6": {
        "name": "Grid_B1",
        "reference_pri": true
      },
      "7": {
        "name": "Load_B3",
        "prosumption_class": "Consumption",
        "prosumption_type": "Load"
      },
      "8": {
        "max_q_mvar": 10.0,
        "min_q_mvar": -10.0,
        "name": "Gen_B2",
        "prosumption_class": "Injection",
        "prosumption_type": "Generator",
        "regulated": true
      },
      "9": {
        "name": "VR_Gen_B2"
      }
    },
    "format_version": "1.0",
    "meta": {
      "case_name": "feeder3_hardpv",
      "created_by": "manual (Sparlectra 0.11.1 schema)",
      "f_nom": 50.0,
      "intended_calculations": [
        "power_flow"
      ],
      "s_base": 100000000.0,
      "source_format": "manual",
      "source_reference": "workshop_tour.ipynb chapter 5, build_qu(80.0, 25.0)"
    },
    "roles": {
      "slack": {
        "mode": "single",
        "nodes": [
          1
        ]
      }
    }
  },
  "type": "input",
  "version": "1.0"
}
